<?xml version="1.0" encoding="UTF-8"?>

<!-- generated on 2023-02-16 11:22:33 by Eclipse SUMO sumo Version a72a14ed04
-->

<configuration xmlns:xsi="http://www.w3.org/2001/XMLSchema-instance" xsi:noNamespaceSchemaLocation="http://sumo.dlr.de/xsd/sumoConfiguration.xsd">

    <input>
        <net-file value="example2.net.xml"/>
        <route-files value="example2.routes.xml"/>
    </input>

</configuration>
