<?xml version="1.0" encoding="UTF-8"?>

<!-- generated on 2023-02-14 13:49:08 by Eclipse SUMO netedit Version 4b90124ecd
<configuration xmlns:xsi="http://www.w3.org/2001/XMLSchema-instance" xsi:noNamespaceSchemaLocation="http://sumo.dlr.de/xsd/netconvertConfiguration.xsd">

    <input>
        <sumocfg-file value="/home/cr/Documents/BP/sumo-railway-priority-fork/examples/simplecoaltest/simplecoaltest.sumocfg"/>
        <sumo-net-file value="/home/cr/Documents/BP/sumo-railway-priority-fork/examples/simplecoaltest/simplecoaltest.net.xml"/>
    </input>

    <output>
        <output-file value="/home/cr/Documents/BP/sumo-railway-priority-fork/examples/simplecoaltest/simplecoaltest.net.xml"/>
    </output>

    <processing>
        <offset.disable-normalization value="true"/>
    </processing>

    <junctions>
        <no-turnarounds value="true"/>
    </junctions>

    <netedit>
        <new-network value="false"/>
    </netedit>

</configuration>
-->

<net version="1.16" junctionCornerDetail="5" limitTurnSpeed="5.50" xmlns:xsi="http://www.w3.org/2001/XMLSchema-instance" xsi:noNamespaceSchemaLocation="http://sumo.dlr.de/xsd/net_file.xsd">

    <location netOffset="0.00,0.00" convBoundary="1.19,-12.10,1277.42,246.70" origBoundary="10000000000.00,10000000000.00,-10000000000.00,-10000000000.00" projParameter="!"/>

    <edge id=":J17_0" function="internal">
        <lane id=":J17_0_0" index="0" allow="tram rail_urban rail rail_electric rail_fast" speed="13.89" length="0.10" shape="322.56,234.95 322.62,234.95"/>
    </edge>
    <edge id=":J18_0" function="internal">
        <lane id=":J18_0_0" index="0" allow="tram rail_urban rail rail_electric rail_fast" speed="7.63" length="1.19" shape="660.54,245.06 660.89,245.06 661.13,245.02 661.35,244.90 661.62,244.68"/>
    </edge>
    <edge id=":J19_0" function="internal">
        <lane id=":J19_0_0" index="0" allow="tram rail_urban rail rail_electric rail_fast" speed="13.89" length="5.95" shape="851.33,79.18 852.92,79.94 854.02,80.53 855.17,80.90 856.89,81.03"/>
    </edge>
    <edge id=":J19_1" function="internal">
        <lane id=":J19_1_0" index="0" allow="tram rail_urban rail rail_electric rail_fast" speed="13.89" length="5.68" shape="851.98,83.42 853.24,82.30 854.19,81.56 855.26,81.15 856.89,81.03"/>
    </edge>
    <edge id=":J20_0" function="internal">
        <lane id=":J20_0_0" index="0" allow="tram rail_urban rail rail_electric rail_fast" speed="13.89" length="0.21" shape="1073.59,81.03 1073.66,81.03 1073.70,81.03 1073.74,81.03 1073.80,81.04"/>
    </edge>
    <edge id=":J23_0" function="internal">
        <lane id=":J23_0_0" index="0" allow="tram rail_urban rail rail_electric rail_fast" speed="13.89" length="0.10" shape="319.20,-12.85 319.20,-12.85"/>
    </edge>
    <edge id=":J24_0" function="internal">
        <lane id=":J24_0_0" index="0" allow="tram rail_urban rail rail_electric rail_fast" speed="13.89" length="0.64" shape="634.66,-12.01 634.85,-12.00 634.98,-11.99 635.10,-11.95 635.28,-11.88"/>
    </edge>

    <edge id="E14" from="J16" to="J17" priority="-1">
        <lane id="E14_0" index="0" allow="tram rail_urban rail rail_electric rail_fast" speed="13.89" length="315.48" shape="7.10,238.33 322.56,234.95"/>
    </edge>
    <edge id="E15" from="J17" to="J18" priority="-1">
        <lane id="E15_0" index="0" allow="tram rail_urban rail rail_electric rail_fast" speed="13.89" length="338.07" shape="322.62,234.95 660.54,245.06"/>
    </edge>
    <edge id="E16" from="J18" to="J19" priority="-1">
        <lane id="E16_0" index="0" allow="tram rail_urban rail rail_electric rail_fast" speed="13.89" length="249.48" shape="661.62,244.68 851.98,83.42"/>
    </edge>
    <edge id="E17" from="J19" to="J20" priority="-1">
        <lane id="E17_0" index="0" allow="tram rail_urban rail rail_electric rail_fast" speed="13.89" length="216.70" shape="856.89,81.03 1073.59,81.03"/>
    </edge>
    <edge id="E18" from="J20" to="J21" priority="-1">
        <lane id="E18_0" index="0" allow="tram rail_urban rail rail_electric rail_fast" speed="13.89" length="205.61" shape="1073.80,81.04 1277.63,108.10"/>
    </edge>
    <edge id="E19" from="J22" to="J23" priority="-1">
        <lane id="E19_0" index="0" allow="tram rail_urban rail rail_electric rail_fast" speed="13.89" length="318.00" shape="1.20,-13.70 319.20,-12.85"/>
    </edge>
    <edge id="E20" from="J23" to="J24" priority="-1">
        <lane id="E20_0" index="0" allow="tram rail_urban rail rail_electric rail_fast" speed="13.89" length="315.46" shape="319.20,-12.85 634.66,-12.01"/>
    </edge>
    <edge id="E21" from="J24" to="J19" priority="-1">
        <lane id="E21_0" index="0" allow="tram rail_urban rail rail_electric rail_fast" speed="13.89" length="234.45" shape="635.28,-11.88 851.33,79.18"/>
    </edge>

    <junction id="J16" type="dead_end" x="7.11" y="239.93" incLanes="" intLanes="" shape="7.11,239.93 7.08,236.73"/>
    <junction id="J17" type="rail_signal" x="322.57" y="236.55" incLanes="E14_0" intLanes=":J17_0_0" shape="322.65,236.55 322.75,233.35 322.46,233.35 322.50,236.55">
        <request index="0" response="0" foes="0" cont="0"/>
    </junction>
    <junction id="J18" type="rail_signal" x="661.72" y="246.70" incLanes="E15_0" intLanes=":J18_0_0" shape="662.65,245.91 660.59,243.46 660.49,246.66 661.37,246.65 661.67,246.57 661.96,246.44 662.27,246.22">
        <request index="0" response="0" foes="0" cont="0"/>
    </junction>
    <junction id="J19" type="rail_signal" x="855.39" y="82.63" incLanes="E21_0 E16_0" intLanes=":J19_0_0 :J19_1_0" shape="856.89,82.63 856.89,79.43 854.98,79.20 854.34,78.94 853.72,78.60 852.97,78.18 851.95,77.70 850.70,80.65 851.35,81.08 851.46,81.33 851.42,81.60 851.25,81.89 850.94,82.20 853.01,84.64 854.27,83.49 854.76,83.10 855.28,82.83 855.96,82.68">
        <request index="0" response="00" foes="10" cont="0"/>
        <request index="1" response="01" foes="01" cont="0"/>
    </junction>
    <junction id="J20" type="rail_signal" x="1073.59" y="82.63" incLanes="E17_0" intLanes=":J20_0_0" shape="1073.59,82.63 1074.02,79.45 1073.86,79.43 1073.81,79.43 1073.68,79.43">
        <request index="0" response="0" foes="0" cont="0"/>
    </junction>
    <junction id="J21" type="dead_end" x="1277.42" y="109.69" incLanes="E18_0" intLanes="" shape="1277.84,106.52 1277.42,109.69"/>
    <junction id="J22" type="dead_end" x="1.19" y="-12.10" incLanes="" intLanes="" shape="1.19,-12.10 1.20,-15.30"/>
    <junction id="J23" type="rail_signal" x="319.19" y="-11.25" incLanes="E19_0" intLanes=":J23_0_0" shape="319.19,-11.25 319.20,-14.45 319.19,-11.25">
        <request index="0" response="0" foes="0" cont="0"/>
    </junction>
    <junction id="J24" type="rail_signal" x="634.65" y="-10.41" incLanes="E20_0" intLanes=":J24_0_0" shape="634.65,-10.41 635.90,-13.36 635.46,-13.53 635.30,-13.57 635.13,-13.59 634.93,-13.60 634.66,-13.61">
        <request index="0" response="0" foes="0" cont="0"/>
    </junction>

    <connection from="E14" to="E15" fromLane="0" toLane="0" via=":J17_0_0" tl="J17" linkIndex="0" dir="s" state="O"/>
    <connection from="E15" to="E16" fromLane="0" toLane="0" via=":J18_0_0" tl="J18" linkIndex="0" dir="s" state="O"/>
    <connection from="E16" to="E17" fromLane="0" toLane="0" via=":J19_1_0" tl="J19" linkIndex="1" dir="s" state="o"/>
    <connection from="E17" to="E18" fromLane="0" toLane="0" via=":J20_0_0" tl="J20" linkIndex="0" dir="s" state="O"/>
    <connection from="E19" to="E20" fromLane="0" toLane="0" via=":J23_0_0" tl="J23" linkIndex="0" dir="s" state="O"/>
    <connection from="E20" to="E21" fromLane="0" toLane="0" via=":J24_0_0" tl="J24" linkIndex="0" dir="s" state="O"/>
    <connection from="E21" to="E17" fromLane="0" toLane="0" via=":J19_0_0" tl="J19" linkIndex="0" dir="s" state="O"/>

    <connection from=":J17_0" to="E15" fromLane="0" toLane="0" dir="s" state="M"/>
    <connection from=":J18_0" to="E16" fromLane="0" toLane="0" dir="s" state="M"/>
    <connection from=":J19_0" to="E17" fromLane="0" toLane="0" dir="s" state="M"/>
    <connection from=":J19_1" to="E17" fromLane="0" toLane="0" dir="s" state="M"/>
    <connection from=":J20_0" to="E18" fromLane="0" toLane="0" dir="s" state="M"/>
    <connection from=":J23_0" to="E20" fromLane="0" toLane="0" dir="s" state="M"/>
    <connection from=":J24_0" to="E21" fromLane="0" toLane="0" dir="s" state="M"/>

</net>
