<?xml version="1.0" encoding="UTF-8"?>

<!-- generated on 2023-02-14 11:19:07 by Eclipse SUMO sumo Version d9e5f77684
-->

<configuration xmlns:xsi="http://www.w3.org/2001/XMLSchema-instance" xsi:noNamespaceSchemaLocation="http://sumo.dlr.de/xsd/sumoConfiguration.xsd">

    <input>
        <net-file value="track-signal-generator-advanced.net.xml"/>
        <route-files value="test.rou.xml"/>
        <junction-taz value="true"/>
    </input>

</configuration>
