<?xml version="1.0" encoding="UTF-8"?>

<!-- generated on 2023-02-14 11:18:18 by Eclipse SUMO netedit Version d9e5f77684
-->

<routes xmlns:xsi="http://www.w3.org/2001/XMLSchema-instance" xsi:noNamespaceSchemaLocation="http://sumo.dlr.de/xsd/routes_file.xsd">
    <!-- VTypes -->
    <vType id="cargo" length="80.00" vClass="rail" color="30,30,30" accel="2.5" decel="1.3"/>
    <vType id="ice" length="60.00" vClass="rail_electric" color="192,192,192" accel="5" decel="1.3"/>
    <vType id="regio" length="20.00" vClass="rail" color="193,18,28" accel="2.5" decel="1.3"/>
    <!-- Vehicles, persons and containers (sorted by depart) -->
    <trip id="t_0" type="regio" depart="0.00" fromJunction="ae1e2" toJunction="3057e"/>
</routes>
