<?xml version="1.0" encoding="UTF-8"?>

<!-- generated on 2023-02-14 11:19:07 by Eclipse SUMO netedit Version d9e5f77684
<configuration xmlns:xsi="http://www.w3.org/2001/XMLSchema-instance" xsi:noNamespaceSchemaLocation="http://sumo.dlr.de/xsd/netconvertConfiguration.xsd">

    <input>
        <sumocfg-file value="/home/instant/Uni/Bachelorprojekt/sumo/sumo-railway-priority-fork/examples/track-signal-generator-advanced.scenario.sumocfg"/>
        <additional-files value=""/>
        <route-files value="/home/instant/Uni/Bachelorprojekt/sumo/sumo-railway-priority-fork/examples/test.rou.xml"/>
        <sumo-net-file value="/home/instant/Uni/Bachelorprojekt/sumo/sumo-railway-priority-fork/examples/track-signal-generator-advanced.net.xml"/>
    </input>

    <output>
        <output-file value="/home/instant/Uni/Bachelorprojekt/sumo/sumo-railway-priority-fork/examples/track-signal-generator-advanced.net.xml"/>
    </output>

    <processing>
        <geometry.min-radius.fix.railways value="false"/>
        <geometry.max-grade.fix value="false"/>
        <offset.disable-normalization value="true"/>
        <lefthand value="0"/>
    </processing>

    <junctions>
        <no-turnarounds value="true"/>
        <junctions.corner-detail value="5"/>
        <junctions.limit-turn-speed value="5.50"/>
        <rectangular-lane-cut value="0"/>
    </junctions>

    <pedestrian>
        <walkingareas value="0"/>
    </pedestrian>

</configuration>
-->

<net version="1.16" junctionCornerDetail="5" limitTurnSpeed="5.50" xmlns:xsi="http://www.w3.org/2001/XMLSchema-instance" xsi:noNamespaceSchemaLocation="http://sumo.dlr.de/xsd/net_file.xsd">

    <location netOffset="4533770.00,5625770.00" convBoundary="0.00,0.00,3003.00,10.00" origBoundary="-4533770.00,-5625770.00,-4530767.00,-5625760.00" projParameter="!"/>

    <edge id=":04562772-61a2-46d8-88da-99491186183a-km-1_0" function="internal" bidi=":04562772-61a2-46d8-88da-99491186183a-km-1_1">
        <lane id=":04562772-61a2-46d8-88da-99491186183a-km-1_0_0" index="0" allow="rail rail_electric" speed="110.00" length="0.10" shape="2053.00,10.00 2053.00,10.00"/>
    </edge>
    <edge id=":04562772-61a2-46d8-88da-99491186183a-km-1_1" function="internal" bidi=":04562772-61a2-46d8-88da-99491186183a-km-1_0">
        <lane id=":04562772-61a2-46d8-88da-99491186183a-km-1_1_0" index="0" allow="rail rail_electric" speed="110.00" length="0.10" shape="2053.00,10.00 2053.00,10.00"/>
    </edge>
    <edge id=":04562772-61a2-46d8-88da-99491186183a-km-501_0" function="internal" bidi=":04562772-61a2-46d8-88da-99491186183a-km-501_1">
        <lane id=":04562772-61a2-46d8-88da-99491186183a-km-501_0_0" index="0" allow="rail rail_electric" speed="110.00" length="0.10" shape="2553.00,10.00 2553.00,10.00"/>
    </edge>
    <edge id=":04562772-61a2-46d8-88da-99491186183a-km-501_1" function="internal" bidi=":04562772-61a2-46d8-88da-99491186183a-km-501_0">
        <lane id=":04562772-61a2-46d8-88da-99491186183a-km-501_1_0" index="0" allow="rail rail_electric" speed="110.00" length="0.10" shape="2553.00,10.00 2553.00,10.00"/>
    </edge>
    <edge id=":05b1d_0" function="internal" bidi=":05b1d_3">
        <lane id=":05b1d_0_0" index="0" allow="rail rail_electric" speed="110.00" length="2.80" shape="2003.96,0.39 2003.15,0.22 2002.59,0.09 2002.03,0.02 2001.20,0.00"/>
    </edge>
    <edge id=":05b1d_1" function="internal" bidi=":05b1d_2">
        <lane id=":05b1d_1_0" index="0" allow="rail rail_electric" speed="110.00" length="2.77" shape="2003.97,0.00 2001.20,0.00"/>
    </edge>
    <edge id=":05b1d_2" function="internal" bidi=":05b1d_1">
        <lane id=":05b1d_2_0" index="0" allow="rail rail_electric" speed="110.00" length="2.37" shape="2001.60,0.00 2003.97,0.00"/>
    </edge>
    <edge id=":05b1d_3" function="internal" bidi=":05b1d_0">
        <lane id=":05b1d_3_0" index="0" allow="rail rail_electric" speed="110.00" length="2.40" shape="2001.60,0.00 2002.31,0.03 2002.79,0.11 2003.27,0.23 2003.96,0.39"/>
    </edge>
    <edge id=":3057e_0" function="internal">
        <lane id=":3057e_0_0" index="0" allow="rail rail_electric" speed="0.10" length="0.10" shape="3003.00,10.00 3003.00,10.00"/>
    </edge>
    <edge id=":6d8b7_0" function="internal" bidi=":6d8b7_1">
        <lane id=":6d8b7_0_0" index="0" allow="rail rail_electric" speed="110.00" length="0.32" shape="2052.16,10.00 2052.06,10.00 2052.00,10.00 2051.94,9.99 2051.84,9.97"/>
    </edge>
    <edge id=":6d8b7_1" function="internal" bidi=":6d8b7_0">
        <lane id=":6d8b7_1_0" index="0" allow="rail rail_electric" speed="110.00" length="0.32" shape="2051.84,9.97 2051.94,9.99 2052.00,10.00 2052.06,10.00 2052.16,10.00"/>
    </edge>
    <edge id=":73e09e5a-0b16-49db-b4ed-eb478f9d93ea-km-10_0" function="internal" bidi=":73e09e5a-0b16-49db-b4ed-eb478f9d93ea-km-10_1">
        <lane id=":73e09e5a-0b16-49db-b4ed-eb478f9d93ea-km-10_0_0" index="0" allow="rail rail_electric" speed="110.00" length="0.10" shape="2011.81,1.96 2011.81,1.96"/>
    </edge>
    <edge id=":73e09e5a-0b16-49db-b4ed-eb478f9d93ea-km-10_1" function="internal" bidi=":73e09e5a-0b16-49db-b4ed-eb478f9d93ea-km-10_0">
        <lane id=":73e09e5a-0b16-49db-b4ed-eb478f9d93ea-km-10_1_0" index="0" allow="rail rail_electric" speed="110.00" length="0.10" shape="2011.81,1.96 2011.81,1.96"/>
    </edge>
    <edge id=":9d6496dc-9ffc-4fe2-a9c1-8a467794b0f9-km-10_0" function="internal" bidi=":9d6496dc-9ffc-4fe2-a9c1-8a467794b0f9-km-10_1">
        <lane id=":9d6496dc-9ffc-4fe2-a9c1-8a467794b0f9-km-10_0_0" index="0" allow="rail rail_electric" speed="110.00" length="0.10" shape="2012.00,0.00 2012.00,0.00"/>
    </edge>
    <edge id=":9d6496dc-9ffc-4fe2-a9c1-8a467794b0f9-km-10_1" function="internal" bidi=":9d6496dc-9ffc-4fe2-a9c1-8a467794b0f9-km-10_0">
        <lane id=":9d6496dc-9ffc-4fe2-a9c1-8a467794b0f9-km-10_1_0" index="0" allow="rail rail_electric" speed="110.00" length="0.10" shape="2012.00,0.00 2012.00,0.00"/>
    </edge>
    <edge id=":9d6496dc-9ffc-4fe2-a9c1-8a467794b0f9-km-1000_0" function="internal" bidi=":9d6496dc-9ffc-4fe2-a9c1-8a467794b0f9-km-1000_1">
        <lane id=":9d6496dc-9ffc-4fe2-a9c1-8a467794b0f9-km-1000_0_0" index="0" allow="rail rail_electric" speed="110.00" length="0.10" shape="3002.00,0.00 3002.00,0.00"/>
    </edge>
    <edge id=":9d6496dc-9ffc-4fe2-a9c1-8a467794b0f9-km-1000_1" function="internal" bidi=":9d6496dc-9ffc-4fe2-a9c1-8a467794b0f9-km-1000_0">
        <lane id=":9d6496dc-9ffc-4fe2-a9c1-8a467794b0f9-km-1000_1_0" index="0" allow="rail rail_electric" speed="110.00" length="0.10" shape="3002.00,0.00 3002.00,0.00"/>
    </edge>
    <edge id=":9d6496dc-9ffc-4fe2-a9c1-8a467794b0f9-km-500_0" function="internal" bidi=":9d6496dc-9ffc-4fe2-a9c1-8a467794b0f9-km-500_1">
        <lane id=":9d6496dc-9ffc-4fe2-a9c1-8a467794b0f9-km-500_0_0" index="0" allow="rail rail_electric" speed="110.00" length="0.10" shape="2502.00,0.00 2502.00,0.00"/>
    </edge>
    <edge id=":9d6496dc-9ffc-4fe2-a9c1-8a467794b0f9-km-500_1" function="internal" bidi=":9d6496dc-9ffc-4fe2-a9c1-8a467794b0f9-km-500_0">
        <lane id=":9d6496dc-9ffc-4fe2-a9c1-8a467794b0f9-km-500_1_0" index="0" allow="rail rail_electric" speed="110.00" length="0.10" shape="2502.00,0.00 2502.00,0.00"/>
    </edge>
    <edge id=":ae1e2_0" function="internal">
        <lane id=":ae1e2_0_0" index="0" allow="rail rail_electric" speed="0.10" length="0.10" shape="0.00,0.00 0.00,0.00"/>
    </edge>
    <edge id=":bba54_0" function="internal">
        <lane id=":bba54_0_0" index="0" allow="rail rail_electric" speed="0.10" length="0.10" shape="3003.00,0.00 3003.00,0.00"/>
    </edge>
    <edge id=":d6dcb1fe-71e7-4b8f-91b6-028e1180db80-km-1_0" function="internal" bidi=":d6dcb1fe-71e7-4b8f-91b6-028e1180db80-km-1_1">
        <lane id=":d6dcb1fe-71e7-4b8f-91b6-028e1180db80-km-1_0_0" index="0" allow="rail rail_electric" speed="110.00" length="0.10" shape="1.00,0.00 1.00,0.00"/>
    </edge>
    <edge id=":d6dcb1fe-71e7-4b8f-91b6-028e1180db80-km-1_1" function="internal" bidi=":d6dcb1fe-71e7-4b8f-91b6-028e1180db80-km-1_0">
        <lane id=":d6dcb1fe-71e7-4b8f-91b6-028e1180db80-km-1_1_0" index="0" allow="rail rail_electric" speed="110.00" length="0.10" shape="1.00,0.00 1.00,0.00"/>
    </edge>
    <edge id=":d6dcb1fe-71e7-4b8f-91b6-028e1180db80-km-1001_0" function="internal" bidi=":d6dcb1fe-71e7-4b8f-91b6-028e1180db80-km-1001_1">
        <lane id=":d6dcb1fe-71e7-4b8f-91b6-028e1180db80-km-1001_0_0" index="0" allow="rail rail_electric" speed="110.00" length="0.10" shape="1001.00,0.00 1001.00,0.00"/>
    </edge>
    <edge id=":d6dcb1fe-71e7-4b8f-91b6-028e1180db80-km-1001_1" function="internal" bidi=":d6dcb1fe-71e7-4b8f-91b6-028e1180db80-km-1001_0">
        <lane id=":d6dcb1fe-71e7-4b8f-91b6-028e1180db80-km-1001_1_0" index="0" allow="rail rail_electric" speed="110.00" length="0.10" shape="1001.00,0.00 1001.00,0.00"/>
    </edge>
    <edge id=":d6dcb1fe-71e7-4b8f-91b6-028e1180db80-km-1501_0" function="internal" bidi=":d6dcb1fe-71e7-4b8f-91b6-028e1180db80-km-1501_1">
        <lane id=":d6dcb1fe-71e7-4b8f-91b6-028e1180db80-km-1501_0_0" index="0" allow="rail rail_electric" speed="110.00" length="0.10" shape="1501.00,0.00 1501.00,0.00"/>
    </edge>
    <edge id=":d6dcb1fe-71e7-4b8f-91b6-028e1180db80-km-1501_1" function="internal" bidi=":d6dcb1fe-71e7-4b8f-91b6-028e1180db80-km-1501_0">
        <lane id=":d6dcb1fe-71e7-4b8f-91b6-028e1180db80-km-1501_1_0" index="0" allow="rail rail_electric" speed="110.00" length="0.10" shape="1501.00,0.00 1501.00,0.00"/>
    </edge>
    <edge id=":d6dcb1fe-71e7-4b8f-91b6-028e1180db80-km-1992_0" function="internal" bidi=":d6dcb1fe-71e7-4b8f-91b6-028e1180db80-km-1992_1">
        <lane id=":d6dcb1fe-71e7-4b8f-91b6-028e1180db80-km-1992_0_0" index="0" allow="rail rail_electric" speed="110.00" length="0.10" shape="1992.00,0.00 1992.00,0.00"/>
    </edge>
    <edge id=":d6dcb1fe-71e7-4b8f-91b6-028e1180db80-km-1992_1" function="internal" bidi=":d6dcb1fe-71e7-4b8f-91b6-028e1180db80-km-1992_0">
        <lane id=":d6dcb1fe-71e7-4b8f-91b6-028e1180db80-km-1992_1_0" index="0" allow="rail rail_electric" speed="110.00" length="0.10" shape="1992.00,0.00 1992.00,0.00"/>
    </edge>
    <edge id=":d6dcb1fe-71e7-4b8f-91b6-028e1180db80-km-2001_0" function="internal" bidi=":d6dcb1fe-71e7-4b8f-91b6-028e1180db80-km-2001_1">
        <lane id=":d6dcb1fe-71e7-4b8f-91b6-028e1180db80-km-2001_0_0" index="0" allow="rail rail_electric" speed="110.00" length="0.10" shape="2001.00,0.00 2001.00,0.00"/>
    </edge>
    <edge id=":d6dcb1fe-71e7-4b8f-91b6-028e1180db80-km-2001_1" function="internal" bidi=":d6dcb1fe-71e7-4b8f-91b6-028e1180db80-km-2001_0">
        <lane id=":d6dcb1fe-71e7-4b8f-91b6-028e1180db80-km-2001_1_0" index="0" allow="rail rail_electric" speed="110.00" length="0.40" shape="2001.00,0.00 2001.40,0.00"/>
    </edge>
    <edge id=":d6dcb1fe-71e7-4b8f-91b6-028e1180db80-km-501_0" function="internal" bidi=":d6dcb1fe-71e7-4b8f-91b6-028e1180db80-km-501_1">
        <lane id=":d6dcb1fe-71e7-4b8f-91b6-028e1180db80-km-501_0_0" index="0" allow="rail rail_electric" speed="110.00" length="0.10" shape="501.00,0.00 501.00,0.00"/>
    </edge>
    <edge id=":d6dcb1fe-71e7-4b8f-91b6-028e1180db80-km-501_1" function="internal" bidi=":d6dcb1fe-71e7-4b8f-91b6-028e1180db80-km-501_0">
        <lane id=":d6dcb1fe-71e7-4b8f-91b6-028e1180db80-km-501_1_0" index="0" allow="rail rail_electric" speed="110.00" length="0.10" shape="501.00,0.00 501.00,0.00"/>
    </edge>

    <edge id="0db80-0" from="ae1e2" to="d6dcb1fe-71e7-4b8f-91b6-028e1180db80-km-1" priority="-1" spreadType="center" bidi="0db80-0-re">
        <lane id="0db80-0_0" index="0" allow="rail rail_electric" speed="110.00" length="1.00" shape="0.00,0.00 1.00,0.00"/>
    </edge>
    <edge id="0db80-0-re" from="d6dcb1fe-71e7-4b8f-91b6-028e1180db80-km-1" to="ae1e2" priority="-1" spreadType="center" bidi="0db80-0">
        <lane id="0db80-0-re_0" index="0" allow="rail rail_electric" speed="110.00" length="1.00" shape="1.00,0.00 0.00,0.00"/>
    </edge>
    <edge id="0db80-1" from="d6dcb1fe-71e7-4b8f-91b6-028e1180db80-km-1" to="d6dcb1fe-71e7-4b8f-91b6-028e1180db80-km-501" priority="-1" spreadType="center" bidi="0db80-1-re">
        <lane id="0db80-1_0" index="0" allow="rail rail_electric" speed="110.00" length="500.00" shape="1.00,0.00 501.00,0.00"/>
    </edge>
    <edge id="0db80-1-re" from="d6dcb1fe-71e7-4b8f-91b6-028e1180db80-km-501" to="d6dcb1fe-71e7-4b8f-91b6-028e1180db80-km-1" priority="-1" spreadType="center" bidi="0db80-1">
        <lane id="0db80-1-re_0" index="0" allow="rail rail_electric" speed="110.00" length="500.00" shape="501.00,0.00 1.00,0.00"/>
    </edge>
    <edge id="0db80-2" from="d6dcb1fe-71e7-4b8f-91b6-028e1180db80-km-501" to="d6dcb1fe-71e7-4b8f-91b6-028e1180db80-km-1001" priority="-1" spreadType="center" bidi="0db80-2-re">
        <lane id="0db80-2_0" index="0" allow="rail rail_electric" speed="110.00" length="500.00" shape="501.00,0.00 1001.00,0.00"/>
    </edge>
    <edge id="0db80-2-re" from="d6dcb1fe-71e7-4b8f-91b6-028e1180db80-km-1001" to="d6dcb1fe-71e7-4b8f-91b6-028e1180db80-km-501" priority="-1" spreadType="center" bidi="0db80-2">
        <lane id="0db80-2-re_0" index="0" allow="rail rail_electric" speed="110.00" length="500.00" shape="1001.00,0.00 501.00,0.00"/>
    </edge>
    <edge id="0db80-3" from="d6dcb1fe-71e7-4b8f-91b6-028e1180db80-km-1001" to="d6dcb1fe-71e7-4b8f-91b6-028e1180db80-km-1501" priority="-1" spreadType="center" bidi="0db80-3-re">
        <lane id="0db80-3_0" index="0" allow="rail rail_electric" speed="110.00" length="500.00" shape="1001.00,0.00 1501.00,0.00"/>
    </edge>
    <edge id="0db80-3-re" from="d6dcb1fe-71e7-4b8f-91b6-028e1180db80-km-1501" to="d6dcb1fe-71e7-4b8f-91b6-028e1180db80-km-1001" priority="-1" spreadType="center" bidi="0db80-3">
        <lane id="0db80-3-re_0" index="0" allow="rail rail_electric" speed="110.00" length="500.00" shape="1501.00,0.00 1001.00,0.00"/>
    </edge>
    <edge id="0db80-4" from="d6dcb1fe-71e7-4b8f-91b6-028e1180db80-km-1501" to="d6dcb1fe-71e7-4b8f-91b6-028e1180db80-km-1992" priority="-1" spreadType="center" bidi="0db80-4-re">
        <lane id="0db80-4_0" index="0" allow="rail rail_electric" speed="110.00" length="491.00" shape="1501.00,0.00 1992.00,0.00"/>
    </edge>
    <edge id="0db80-4-re" from="d6dcb1fe-71e7-4b8f-91b6-028e1180db80-km-1992" to="d6dcb1fe-71e7-4b8f-91b6-028e1180db80-km-1501" priority="-1" spreadType="center" bidi="0db80-4">
        <lane id="0db80-4-re_0" index="0" allow="rail rail_electric" speed="110.00" length="491.00" shape="1992.00,0.00 1501.00,0.00"/>
    </edge>
    <edge id="0db80-5" from="d6dcb1fe-71e7-4b8f-91b6-028e1180db80-km-1992" to="d6dcb1fe-71e7-4b8f-91b6-028e1180db80-km-2001" priority="-1" spreadType="center" bidi="0db80-5-re">
        <lane id="0db80-5_0" index="0" allow="rail rail_electric" speed="110.00" length="9.00" shape="1992.00,0.00 2001.00,0.00"/>
    </edge>
    <edge id="0db80-5-re" from="d6dcb1fe-71e7-4b8f-91b6-028e1180db80-km-2001" to="d6dcb1fe-71e7-4b8f-91b6-028e1180db80-km-1992" priority="-1" spreadType="center" bidi="0db80-5">
        <lane id="0db80-5-re_0" index="0" allow="rail rail_electric" speed="110.00" length="9.00" shape="2001.00,0.00 1992.00,0.00"/>
    </edge>
    <edge id="0db80-6" from="d6dcb1fe-71e7-4b8f-91b6-028e1180db80-km-2001" to="05b1d" priority="-1" spreadType="center" bidi="0db80-6-re">
        <lane id="0db80-6_0" index="0" allow="rail rail_electric" speed="110.00" length="0.20" shape="2001.40,0.00 2001.60,0.00"/>
    </edge>
    <edge id="0db80-6-re" from="05b1d" to="d6dcb1fe-71e7-4b8f-91b6-028e1180db80-km-2001" priority="-1" spreadType="center" bidi="0db80-6">
        <lane id="0db80-6-re_0" index="0" allow="rail rail_electric" speed="110.00" length="0.20" shape="2001.20,0.00 2001.00,0.00"/>
    </edge>
    <edge id="4b0f9-0" from="05b1d" to="9d6496dc-9ffc-4fe2-a9c1-8a467794b0f9-km-10" priority="-1" spreadType="center" bidi="4b0f9-0-re">
        <lane id="4b0f9-0_0" index="0" allow="rail rail_electric" speed="110.00" length="8.03" shape="2003.97,0.00 2012.00,0.00"/>
    </edge>
    <edge id="4b0f9-0-re" from="9d6496dc-9ffc-4fe2-a9c1-8a467794b0f9-km-10" to="05b1d" priority="-1" spreadType="center" bidi="4b0f9-0">
        <lane id="4b0f9-0-re_0" index="0" allow="rail rail_electric" speed="110.00" length="8.03" shape="2012.00,0.00 2003.97,0.00"/>
    </edge>
    <edge id="4b0f9-1" from="9d6496dc-9ffc-4fe2-a9c1-8a467794b0f9-km-10" to="9d6496dc-9ffc-4fe2-a9c1-8a467794b0f9-km-500" priority="-1" spreadType="center" bidi="4b0f9-1-re">
        <lane id="4b0f9-1_0" index="0" allow="rail rail_electric" speed="110.00" length="490.00" shape="2012.00,0.00 2502.00,0.00"/>
    </edge>
    <edge id="4b0f9-1-re" from="9d6496dc-9ffc-4fe2-a9c1-8a467794b0f9-km-500" to="9d6496dc-9ffc-4fe2-a9c1-8a467794b0f9-km-10" priority="-1" spreadType="center" bidi="4b0f9-1">
        <lane id="4b0f9-1-re_0" index="0" allow="rail rail_electric" speed="110.00" length="490.00" shape="2502.00,0.00 2012.00,0.00"/>
    </edge>
    <edge id="4b0f9-2" from="9d6496dc-9ffc-4fe2-a9c1-8a467794b0f9-km-500" to="9d6496dc-9ffc-4fe2-a9c1-8a467794b0f9-km-1000" priority="-1" spreadType="center" bidi="4b0f9-2-re">
        <lane id="4b0f9-2_0" index="0" allow="rail rail_electric" speed="110.00" length="500.00" shape="2502.00,0.00 3002.00,0.00"/>
    </edge>
    <edge id="4b0f9-2-re" from="9d6496dc-9ffc-4fe2-a9c1-8a467794b0f9-km-1000" to="9d6496dc-9ffc-4fe2-a9c1-8a467794b0f9-km-500" priority="-1" spreadType="center" bidi="4b0f9-2">
        <lane id="4b0f9-2-re_0" index="0" allow="rail rail_electric" speed="110.00" length="500.00" shape="3002.00,0.00 2502.00,0.00"/>
    </edge>
    <edge id="4b0f9-3" from="9d6496dc-9ffc-4fe2-a9c1-8a467794b0f9-km-1000" to="bba54" priority="-1" spreadType="center" bidi="4b0f9-3-re">
        <lane id="4b0f9-3_0" index="0" allow="rail rail_electric" speed="110.00" length="1.00" shape="3002.00,0.00 3003.00,0.00"/>
    </edge>
    <edge id="4b0f9-3-re" from="bba54" to="9d6496dc-9ffc-4fe2-a9c1-8a467794b0f9-km-1000" priority="-1" spreadType="center" bidi="4b0f9-3">
        <lane id="4b0f9-3-re_0" index="0" allow="rail rail_electric" speed="110.00" length="1.00" shape="3003.00,0.00 3002.00,0.00"/>
    </edge>
    <edge id="6183a-0" from="6d8b7" to="04562772-61a2-46d8-88da-99491186183a-km-1" priority="-1" spreadType="center" bidi="6183a-0-re">
        <lane id="6183a-0_0" index="0" allow="rail rail_electric" speed="110.00" length="0.84" shape="2052.16,10.00 2053.00,10.00"/>
    </edge>
    <edge id="6183a-0-re" from="04562772-61a2-46d8-88da-99491186183a-km-1" to="6d8b7" priority="-1" spreadType="center" bidi="6183a-0">
        <lane id="6183a-0-re_0" index="0" allow="rail rail_electric" speed="110.00" length="0.84" shape="2053.00,10.00 2052.16,10.00"/>
    </edge>
    <edge id="6183a-1" from="04562772-61a2-46d8-88da-99491186183a-km-1" to="04562772-61a2-46d8-88da-99491186183a-km-501" priority="-1" spreadType="center" bidi="6183a-1-re">
        <lane id="6183a-1_0" index="0" allow="rail rail_electric" speed="110.00" length="500.00" shape="2053.00,10.00 2553.00,10.00"/>
    </edge>
    <edge id="6183a-1-re" from="04562772-61a2-46d8-88da-99491186183a-km-501" to="04562772-61a2-46d8-88da-99491186183a-km-1" priority="-1" spreadType="center" bidi="6183a-1">
        <lane id="6183a-1-re_0" index="0" allow="rail rail_electric" speed="110.00" length="500.00" shape="2553.00,10.00 2053.00,10.00"/>
    </edge>
    <edge id="6183a-2" from="04562772-61a2-46d8-88da-99491186183a-km-501" to="3057e" priority="-1" spreadType="center" bidi="6183a-2-re">
        <lane id="6183a-2_0" index="0" allow="rail rail_electric" speed="110.00" length="450.00" shape="2553.00,10.00 3003.00,10.00"/>
    </edge>
    <edge id="6183a-2-re" from="3057e" to="04562772-61a2-46d8-88da-99491186183a-km-501" priority="-1" spreadType="center" bidi="6183a-2">
        <lane id="6183a-2-re_0" index="0" allow="rail rail_electric" speed="110.00" length="450.00" shape="3003.00,10.00 2553.00,10.00"/>
    </edge>
    <edge id="d93ea-0" from="05b1d" to="73e09e5a-0b16-49db-b4ed-eb478f9d93ea-km-10" priority="-1" spreadType="center" bidi="d93ea-0-re">
        <lane id="d93ea-0_0" index="0" allow="rail rail_electric" speed="110.00" length="8.00" shape="2003.96,0.39 2011.81,1.96"/>
    </edge>
    <edge id="d93ea-0-re" from="73e09e5a-0b16-49db-b4ed-eb478f9d93ea-km-10" to="05b1d" priority="-1" spreadType="center" bidi="d93ea-0">
        <lane id="d93ea-0-re_0" index="0" allow="rail rail_electric" speed="110.00" length="8.00" shape="2011.81,1.96 2003.96,0.39"/>
    </edge>
    <edge id="d93ea-1" from="73e09e5a-0b16-49db-b4ed-eb478f9d93ea-km-10" to="6d8b7" priority="-1" spreadType="center" bidi="d93ea-1-re">
        <lane id="d93ea-1_0" index="0" allow="rail rail_electric" speed="110.00" length="40.83" shape="2011.81,1.96 2051.84,9.97"/>
    </edge>
    <edge id="d93ea-1-re" from="6d8b7" to="73e09e5a-0b16-49db-b4ed-eb478f9d93ea-km-10" priority="-1" spreadType="center" bidi="d93ea-1">
        <lane id="d93ea-1-re_0" index="0" allow="rail rail_electric" speed="110.00" length="40.83" shape="2051.84,9.97 2011.81,1.96"/>
    </edge>

    <junction id="04562772-61a2-46d8-88da-99491186183a-km-1" type="rail_signal" x="2053.00" y="10.00" incLanes="6183a-1-re_0 6183a-0_0" intLanes=":04562772-61a2-46d8-88da-99491186183a-km-1_0_0 :04562772-61a2-46d8-88da-99491186183a-km-1_1_0" shape="2053.00,11.60 2053.00,8.40 2053.00,11.60">
        <request index="0" response="00" foes="00" cont="0"/>
        <request index="1" response="00" foes="00" cont="0"/>
    </junction>
    <junction id="04562772-61a2-46d8-88da-99491186183a-km-501" type="rail_signal" x="2553.00" y="10.00" incLanes="6183a-2-re_0 6183a-1_0" intLanes=":04562772-61a2-46d8-88da-99491186183a-km-501_0_0 :04562772-61a2-46d8-88da-99491186183a-km-501_1_0" shape="2553.00,11.60 2553.00,8.40 2553.00,11.60">
        <request index="0" response="00" foes="00" cont="0"/>
        <request index="1" response="00" foes="00" cont="0"/>
    </junction>
    <junction id="05b1d" type="priority" x="2002.00" y="0.00" incLanes="d93ea-0-re_0 4b0f9-0-re_0 0db80-6_0" intLanes=":05b1d_0_0 :05b1d_1_0 :05b1d_2_0 :05b1d_3_0" shape="2003.95,2.02 2003.98,-1.60 2000.98,-1.60 2000.98,1.60">
        <request index="0" response="0010" foes="0010" cont="0"/>
        <request index="1" response="0000" foes="1001" cont="0"/>
        <request index="2" response="0000" foes="0000" cont="0"/>
        <request index="3" response="0010" foes="0010" cont="0"/>
    </junction>
    <junction id="3057e" type="priority" x="3003.00" y="10.00" incLanes="6183a-2_0" intLanes=":3057e_0_0" shape="3003.00,8.40 3003.00,11.60 3003.00,8.40 3003.00,11.60">
        <request index="0" response="0" foes="0" cont="0"/>
    </junction>
    <junction id="6d8b7" type="priority" x="2052.00" y="10.00" incLanes="6183a-0-re_0 d93ea-1_0" intLanes=":6d8b7_0_0 :6d8b7_1_0" shape="2052.16,11.60 2052.16,8.40 2051.53,11.54 2051.76,11.58 2051.84,11.59 2051.92,11.60 2052.02,11.60">
        <request index="0" response="00" foes="00" cont="0"/>
        <request index="1" response="00" foes="00" cont="0"/>
    </junction>
    <junction id="73e09e5a-0b16-49db-b4ed-eb478f9d93ea-km-10" type="rail_signal" x="2011.81" y="1.96" incLanes="d93ea-1-re_0 d93ea-0_0" intLanes=":73e09e5a-0b16-49db-b4ed-eb478f9d93ea-km-10_0_0 :73e09e5a-0b16-49db-b4ed-eb478f9d93ea-km-10_1_0" shape="2011.50,3.53 2012.12,0.39 2011.50,3.53">
        <request index="0" response="00" foes="00" cont="0"/>
        <request index="1" response="00" foes="00" cont="0"/>
    </junction>
    <junction id="9d6496dc-9ffc-4fe2-a9c1-8a467794b0f9-km-10" type="rail_signal" x="2012.00" y="0.00" incLanes="4b0f9-1-re_0 4b0f9-0_0" intLanes=":9d6496dc-9ffc-4fe2-a9c1-8a467794b0f9-km-10_0_0 :9d6496dc-9ffc-4fe2-a9c1-8a467794b0f9-km-10_1_0" shape="2012.00,1.60 2012.00,-1.60 2012.00,1.60">
        <request index="0" response="00" foes="00" cont="0"/>
        <request index="1" response="00" foes="00" cont="0"/>
    </junction>
    <junction id="9d6496dc-9ffc-4fe2-a9c1-8a467794b0f9-km-1000" type="rail_signal" x="3002.00" y="0.00" incLanes="4b0f9-3-re_0 4b0f9-2_0" intLanes=":9d6496dc-9ffc-4fe2-a9c1-8a467794b0f9-km-1000_0_0 :9d6496dc-9ffc-4fe2-a9c1-8a467794b0f9-km-1000_1_0" shape="3002.00,1.60 3002.00,-1.60 3002.00,1.60">
        <request index="0" response="00" foes="00" cont="0"/>
        <request index="1" response="00" foes="00" cont="0"/>
    </junction>
    <junction id="9d6496dc-9ffc-4fe2-a9c1-8a467794b0f9-km-500" type="rail_signal" x="2502.00" y="0.00" incLanes="4b0f9-2-re_0 4b0f9-1_0" intLanes=":9d6496dc-9ffc-4fe2-a9c1-8a467794b0f9-km-500_0_0 :9d6496dc-9ffc-4fe2-a9c1-8a467794b0f9-km-500_1_0" shape="2502.00,1.60 2502.00,-1.60 2502.00,1.60">
        <request index="0" response="00" foes="00" cont="0"/>
        <request index="1" response="00" foes="00" cont="0"/>
    </junction>
    <junction id="ae1e2" type="priority" x="0.00" y="0.00" incLanes="0db80-0-re_0" intLanes=":ae1e2_0_0" shape="0.00,1.60 0.00,-1.60 0.00,1.60 0.00,-1.60">
        <request index="0" response="0" foes="0" cont="0"/>
    </junction>
    <junction id="bba54" type="priority" x="3003.00" y="0.00" incLanes="4b0f9-3_0" intLanes=":bba54_0_0" shape="3003.00,-1.60 3003.00,1.60 3003.00,-1.60 3003.00,1.60">
        <request index="0" response="0" foes="0" cont="0"/>
    </junction>
    <junction id="d6dcb1fe-71e7-4b8f-91b6-028e1180db80-km-1" type="rail_signal" x="1.00" y="0.00" incLanes="0db80-1-re_0 0db80-0_0" intLanes=":d6dcb1fe-71e7-4b8f-91b6-028e1180db80-km-1_0_0 :d6dcb1fe-71e7-4b8f-91b6-028e1180db80-km-1_1_0" shape="1.00,1.60 1.00,-1.60 1.00,1.60">
        <request index="0" response="00" foes="00" cont="0"/>
        <request index="1" response="00" foes="00" cont="0"/>
    </junction>
    <junction id="d6dcb1fe-71e7-4b8f-91b6-028e1180db80-km-1001" type="rail_signal" x="1001.00" y="0.00" incLanes="0db80-3-re_0 0db80-2_0" intLanes=":d6dcb1fe-71e7-4b8f-91b6-028e1180db80-km-1001_0_0 :d6dcb1fe-71e7-4b8f-91b6-028e1180db80-km-1001_1_0" shape="1001.00,1.60 1001.00,-1.60 1001.00,1.60">
        <request index="0" response="00" foes="00" cont="0"/>
        <request index="1" response="00" foes="00" cont="0"/>
    </junction>
    <junction id="d6dcb1fe-71e7-4b8f-91b6-028e1180db80-km-1501" type="rail_signal" x="1501.00" y="0.00" incLanes="0db80-4-re_0 0db80-3_0" intLanes=":d6dcb1fe-71e7-4b8f-91b6-028e1180db80-km-1501_0_0 :d6dcb1fe-71e7-4b8f-91b6-028e1180db80-km-1501_1_0" shape="1501.00,1.60 1501.00,-1.60 1501.00,1.60">
        <request index="0" response="00" foes="00" cont="0"/>
        <request index="1" response="00" foes="00" cont="0"/>
    </junction>
    <junction id="d6dcb1fe-71e7-4b8f-91b6-028e1180db80-km-1992" type="rail_signal" x="1992.00" y="0.00" incLanes="0db80-5-re_0 0db80-4_0" intLanes=":d6dcb1fe-71e7-4b8f-91b6-028e1180db80-km-1992_0_0 :d6dcb1fe-71e7-4b8f-91b6-028e1180db80-km-1992_1_0" shape="1992.00,1.60 1992.00,-1.60 1992.00,1.60">
        <request index="0" response="00" foes="00" cont="0"/>
        <request index="1" response="00" foes="00" cont="0"/>
    </junction>
    <junction id="d6dcb1fe-71e7-4b8f-91b6-028e1180db80-km-2001" type="rail_signal" x="2001.00" y="0.00" incLanes="0db80-6-re_0 0db80-5_0" intLanes=":d6dcb1fe-71e7-4b8f-91b6-028e1180db80-km-2001_0_0 :d6dcb1fe-71e7-4b8f-91b6-028e1180db80-km-2001_1_0" shape="2001.00,1.60 2001.00,-1.60 2001.00,1.60">
        <request index="0" response="00" foes="00" cont="0"/>
        <request index="1" response="00" foes="00" cont="0"/>
    </junction>
    <junction id="d6dcb1fe-71e7-4b8f-91b6-028e1180db80-km-501" type="rail_signal" x="501.00" y="0.00" incLanes="0db80-2-re_0 0db80-1_0" intLanes=":d6dcb1fe-71e7-4b8f-91b6-028e1180db80-km-501_0_0 :d6dcb1fe-71e7-4b8f-91b6-028e1180db80-km-501_1_0" shape="501.00,1.60 501.00,-1.60 501.00,1.60">
        <request index="0" response="00" foes="00" cont="0"/>
        <request index="1" response="00" foes="00" cont="0"/>
    </junction>

    <connection from="0db80-0" to="0db80-1" fromLane="0" toLane="0" via=":d6dcb1fe-71e7-4b8f-91b6-028e1180db80-km-1_1_0" tl="d6dcb1fe-71e7-4b8f-91b6-028e1180db80-km-1" linkIndex="1" dir="s" state="O"/>
    <connection from="0db80-0-re" to="0db80-0" fromLane="0" toLane="0" speed="0.10" via=":ae1e2_0_0" dir="t" state="M"/>
    <connection from="0db80-1" to="0db80-2" fromLane="0" toLane="0" via=":d6dcb1fe-71e7-4b8f-91b6-028e1180db80-km-501_1_0" tl="d6dcb1fe-71e7-4b8f-91b6-028e1180db80-km-501" linkIndex="1" dir="s" state="O"/>
    <connection from="0db80-1-re" to="0db80-0-re" fromLane="0" toLane="0" via=":d6dcb1fe-71e7-4b8f-91b6-028e1180db80-km-1_0_0" tl="d6dcb1fe-71e7-4b8f-91b6-028e1180db80-km-1" linkIndex="0" dir="s" state="O"/>
    <connection from="0db80-2" to="0db80-3" fromLane="0" toLane="0" via=":d6dcb1fe-71e7-4b8f-91b6-028e1180db80-km-1001_1_0" tl="d6dcb1fe-71e7-4b8f-91b6-028e1180db80-km-1001" linkIndex="1" dir="s" state="O"/>
    <connection from="0db80-2-re" to="0db80-1-re" fromLane="0" toLane="0" via=":d6dcb1fe-71e7-4b8f-91b6-028e1180db80-km-501_0_0" tl="d6dcb1fe-71e7-4b8f-91b6-028e1180db80-km-501" linkIndex="0" dir="s" state="O"/>
    <connection from="0db80-3" to="0db80-4" fromLane="0" toLane="0" via=":d6dcb1fe-71e7-4b8f-91b6-028e1180db80-km-1501_1_0" tl="d6dcb1fe-71e7-4b8f-91b6-028e1180db80-km-1501" linkIndex="1" dir="s" state="O"/>
    <connection from="0db80-3-re" to="0db80-2-re" fromLane="0" toLane="0" via=":d6dcb1fe-71e7-4b8f-91b6-028e1180db80-km-1001_0_0" tl="d6dcb1fe-71e7-4b8f-91b6-028e1180db80-km-1001" linkIndex="0" dir="s" state="O"/>
    <connection from="0db80-4" to="0db80-5" fromLane="0" toLane="0" via=":d6dcb1fe-71e7-4b8f-91b6-028e1180db80-km-1992_1_0" tl="d6dcb1fe-71e7-4b8f-91b6-028e1180db80-km-1992" linkIndex="1" dir="s" state="O"/>
    <connection from="0db80-4-re" to="0db80-3-re" fromLane="0" toLane="0" via=":d6dcb1fe-71e7-4b8f-91b6-028e1180db80-km-1501_0_0" tl="d6dcb1fe-71e7-4b8f-91b6-028e1180db80-km-1501" linkIndex="0" dir="s" state="O"/>