<?xml version="1.0" encoding="UTF-8"?>

<!-- generated on 2023-02-14 11:29:13 by Eclipse SUMO netedit Version d9e5f77684
<configuration xmlns:xsi="http://www.w3.org/2001/XMLSchema-instance" xsi:noNamespaceSchemaLocation="http://sumo.dlr.de/xsd/netconvertConfiguration.xsd">

    <input>
        <sumocfg-file value="/home/cr/Documents/BP/sumo-railway-priority-fork/examples/cooltest/cooltest.sumocfg"/>
        <sumo-net-file value="/home/cr/Documents/BP/sumo-railway-priority-fork/examples/cooltest/cooltest.net.xml"/>
    </input>

    <output>
        <output-file value="/home/cr/Documents/BP/sumo-railway-priority-fork/examples/cooltest/cooltest.net.xml"/>
    </output>

    <processing>
        <offset.disable-normalization value="true"/>
    </processing>

    <junctions>
        <no-turnarounds value="true"/>
    </junctions>

    <netedit>
        <new-network value="false"/>
    </netedit>

</configuration>
-->

<net version="1.16" junctionCornerDetail="5" limitTurnSpeed="5.50" xmlns:xsi="http://www.w3.org/2001/XMLSchema-instance" xsi:noNamespaceSchemaLocation="http://sumo.dlr.de/xsd/net_file.xsd">

    <location netOffset="0.00,0.00" convBoundary="-29.66,54.86,220.31,84.20" origBoundary="10000000000.00,10000000000.00,-10000000000.00,-10000000000.00" projParameter="!"/>

    <edge id=":J1_0" function="internal">
        <lane id=":J1_0_0" index="0" allow="tram rail_urban rail rail_electric rail_fast" speed="13.89" length="0.18" shape="109.88,62.52 109.93,62.52 109.97,62.53 110.00,62.53 110.06,62.54"/>
    </edge>

    <edge id="E0" from="J0" to="J1" priority="-1">
        <lane id="E0_0" index="0" allow="tram rail_urban rail rail_electric rail_fast" speed="13.89" length="139.74" shape="-29.55,53.26 109.88,62.52"/>
    </edge>
    <edge id="E1" from="J1" to="J2" priority="-1">
        <lane id="E1_0" index="0" allow="tram rail_urban rail rail_electric rail_fast" speed="13.89" length="112.35" shape="110.06,62.54 220.59,82.62"/>
    </edge>

    <junction id="J0" type="dead_end" x="-29.66" y="54.86" incLanes="" intLanes="" shape="-29.66,54.86 -29.45,51.66"/>
    <junction id="J1" type="rail_signal" x="109.77" y="64.11" incLanes="E0_0" intLanes=":J1_0_0" shape="109.77,64.11 110.34,60.97 110.21,60.94 110.12,60.93 110.06,60.93">
        <request index="0" response="0" foes="0" cont="0"/>
    </junction>
    <junction id="J2" type="dead_end" x="220.31" y="84.20" incLanes="E1_0" intLanes="" shape="220.88,81.05 220.31,84.20"/>

    <connection from="E0" to="E1" fromLane="0" toLane="0" via=":J1_0_0" tl="J1" linkIndex="0" dir="s" state="O"/>

    <connection from=":J1_0" to="E1" fromLane="0" toLane="0" dir="s" state="M"/>

</net>
