<?xml version="1.0" encoding="UTF-8"?>

<!-- generated on 2023-02-14 11:29:13 by Eclipse SUMO netedit Version d9e5f77684
-->

<routes xmlns:xsi="http://www.w3.org/2001/XMLSchema-instance" xsi:noNamespaceSchemaLocation="http://sumo.dlr.de/xsd/routes_file.xsd">
    <!-- VTypes -->
    <vType id="testtraincool" vClass="rail"/>
    <!-- Vehicles, persons and containers (sorted by depart) -->
    <trip id="t_0" type="testtraincool" depart="0.00" from="E0" to="E1"/>
</routes>
